96atom_min.xyz
 OpenBabel03202520523D

 97 96  0  0  1  0  0  0  0  0999 V2000
  472.7920  318.8611  338.1193 H   0  0  0  0  0  0  0  0  0  0  0  0
  472.5539  325.6877  336.9652 H   0  0  0  0  0  0  0  0  0  0  0  0
  478.1397  326.9937  338.7596 H   0  0  0  0  0  0  0  0  0  0  0  0
  478.5254  326.5539  335.7311 H   0  0  0  0  0  0  0  0  0  0  0  0
  476.0049  316.4467  343.2640 H   0  0  0  0  0  0  0  0  0  0  0  0
  478.7919  323.4997  340.0322 H   0  0  0  0  0  0  0  0  0  0  0  0
  479.3675  325.8250  338.2128 H   0  0  0  0  0  0  0  0  0  0  0  0
  476.3184  318.1947  345.8599 H   0  0  0  0  0  0  0  0  0  0  0  0
  475.9374  318.2136  331.8569 H   0  0  0  0  0  0  0  0  0  0  0  0
  470.2119  318.6527  332.6784 H   0  0  0  0  0  0  0  0  0  0  0  0
  474.2827  320.3474  334.7534 H   0  0  0  0  0  0  0  0  0  0  0  0
  477.5927  322.5120  337.9017 H   0  0  0  0  0  0  0  0  0  0  0  0
  477.6905  324.0390  341.2975 H   0  0  0  0  0  0  0  0  0  0  0  0
  473.2755  327.6489  339.6219 O   0  0  0  0  0  0  0  0  0  0  0  0
  472.6639  327.5489  337.0441 H   0  0  0  0  0  0  0  0  0  0  0  0
  477.1647  320.4902  344.1843 H   0  0  0  0  0  0  0  0  0  0  0  0
  477.0078  318.4352  330.5574 H   0  0  0  0  0  0  0  0  0  0  0  0
  476.9315  324.2133  336.7328 C   0  0  2  0  0  3  0  0  0  0  0  0
  477.7703  323.3912  340.4150 C   0  0  0  0  0  0  0  0  0  0  0  0
  476.8016  323.8702  339.3498 C   0  0  1  0  0  3  0  0  0  0  0  0
  476.0725  317.4926  342.9964 C   0  0  0  0  0  3  0  0  0  0  0  0
  476.7651  320.1994  333.4118 C   0  0  0  0  0  0  0  0  0  0  0  0
  479.7568  321.7014  341.8420 C   0  0  0  0  0  0  0  0  0  0  0  0
  472.7476  318.5315  336.0882 C   0  0  2  0  0  3  0  0  0  0  0  0
  474.2651  324.3489  339.2283 C   0  0  0  0  0  0  0  0  0  0  0  0
  472.7014  326.5916  337.5456 C   0  0  0  0  0  0  0  0  0  0  0  0
  477.3216  319.7127  332.1487 C   0  0  0  0  0  3  0  0  0  0  0  0
  477.1181  323.4920  337.9828 C   0  0  0  0  0  3  0  0  0  0  0  0
  471.8332  318.5904  334.9643 C   0  0  0  0  0  0  0  0  0  0  0  0
  473.1153  325.1916  339.6766 C   0  0  0  0  0  0  0  0  0  0  0  0
  480.3926  321.1938  340.8773 O   0  0  0  0  0  0  0  0  0  0  0  0
  476.9790  321.6055  333.7783 C   0  0  0  0  0  0  0  0  0  0  0  0
  473.0337  326.4870  338.9316 C   0  0  0  0  0  0  0  0  0  0  0  0
  474.7347  316.4875  337.4283 C   0  0  0  0  0  0  0  0  0  0  0  0
  473.1830  325.3814  340.7546 H   0  0  0  0  0  0  0  0  0  0  0  0
  469.5074  318.1287  330.2155 H   0  0  0  0  0  0  0  0  0  0  0  0
  470.2956  315.9425  328.8075 H   0  0  0  0  0  0  0  0  0  0  0  0
  479.1255  319.3080  341.0729 H   0  0  0  0  0  0  0  0  0  0  0  0
  474.1516  323.6974  338.3683 H   0  0  0  0  0  0  0  0  0  0  0  0
  476.5339  321.5760  335.8992 H   0  0  0  0  0  0  0  0  0  0  0  0
  476.8656  318.5000  331.5589 N   0  0  0  0  0  0  0  0  0  0  0  0
  472.1863  324.6283  339.5263 H   0  0  0  0  0  0  0  0  0  0  0  0
  476.2409  318.3201  338.7358 H   0  0  0  0  0  0  0  0  0  0  0  0
  475.8425  317.7871  341.9771 H   0  0  0  0  0  0  0  0  0  0  0  0
  474.0605  315.9898  336.7240 H   0  0  0  0  0  0  0  0  0  0  0  0
  470.8828  319.0876  335.1330 H   0  0  0  0  0  0  0  0  0  0  0  0
  479.5029  327.5359  337.7711 H   0  0  0  0  0  0  0  0  0  0  0  0
  480.4897  321.2558  343.8058 H   0  0  0  0  0  0  0  0  0  0  0  0
  476.1591  326.0379  337.6292 H   0  0  0  0  0  0  0  0  0  0  0  0
  477.1416  318.2857  337.2089 H   0  0  0  0  0  0  0  0  0  0  0  0
  472.9680  317.4768  333.5008 H   0  0  0  0  0  0  0  0  0  0  0  0
  472.1576  318.5548  337.3859 N   0  0  0  0  0  0  0  0  0  0  0  0
  477.4775  322.0034  340.7641 N   0  0  0  0  0  0  0  0  0  0  0  0
  478.0909  319.2255  341.1607 N   0  0  0  0  0  0  0  0  0  0  0  0
  471.3586  317.5408  331.2172 C   0  0  0  0  0  0  0  0  0  0  0  0
  470.4630  317.6307  330.0948 C   0  0  0  0  0  3  0  0  0  0  0  0
  470.7696  316.9284  328.8196 C   0  0  0  0  0  0  0  0  0  0  0  0
  477.4221  324.2524  334.6147 H   0  0  0  0  0  0  0  0  0  0  0  0
  475.6527  315.8926  337.4760 H   0  0  0  0  0  0  0  0  0  0  0  0
  473.2932  328.4317  339.0475 H   0  0  0  0  0  0  0  0  0  0  0  0
  475.5770  324.5025  339.8069 C   0  0  0  0  0  0  0  0  0  0  0  0
  478.0464  318.4971  345.5991 H   0  0  0  0  0  0  0  0  0  0  0  0
  480.5462  322.0578  343.0614 C   0  0  0  0  0  0  0  0  0  0  0  0
  476.8616  318.3965  343.7988 C   0  0  2  0  0  3  0  0  0  0  0  0
  477.0852  323.6033  335.4182 C   0  0  0  0  0  0  0  0  0  0  0  0
  478.0196  326.4667  336.6858 C   0  0  0  0  0  3  0  0  0  0  0  0
  477.1676  317.9753  345.2041 C   0  0  0  0  0  0  0  0  0  0  0  0
  477.8258  320.0967  342.2379 C   0  0  0  0  0  0  0  0  0  0  0  0
  476.1971  318.5838  337.6740 C   0  0  0  0  0  0  0  0  0  0  0  0
  470.3794  317.5051  327.9754 H   0  0  0  0  0  0  0  0  0  0  0  0
  474.2249  318.5644  336.0026 C   0  0  2  0  0  3  0  0  0  0  0  0
  478.2388  321.5714  341.9612 C   0  0  1  0  0  0  0  0  0  0  0  0
  476.1061  319.6728  337.6162 H   0  0  0  0  0  0  0  0  0  0  0  0
  471.2312  318.9519  337.4674 H   0  0  0  0  0  0  0  0  0  0  0  0
  476.1125  326.0073  335.8946 H   0  0  0  0  0  0  0  0  0  0  0  0
  478.7978  326.7150  337.9316 C   0  0  0  0  0  0  0  0  0  0  0  0
  475.0479  317.8883  337.0136 C   0  0  0  0  0  3  0  0  0  0  0  0
  476.8312  322.2226  335.0770 C   0  0  0  0  0  0  0  0  0  0  0  0
  472.2887  316.9951  331.0731 H   0  0  0  0  0  0  0  0  0  0  0  0
  472.0395  318.0239  333.6502 C   0  0  0  0  0  0  0  0  0  0  0  0
  474.8523  319.4612  335.0244 C   0  0  0  0  0  0  0  0  0  0  0  0
  477.2825  319.7316  343.4149 C   0  0  0  0  0  0  0  0  0  0  0  0
  481.6045  322.2475  342.8447 H   0  0  0  0  0  0  0  0  0  0  0  0
  476.1076  319.2682  334.3328 C   0  0  0  0  0  0  0  0  0  0  0  0
  477.3512  322.2540  332.9890 H   0  0  0  0  0  0  0  0  0  0  0  0
  476.5978  318.3053  334.4617 H   0  0  0  0  0  0  0  0  0  0  0  0
  477.3778  316.9019  345.2618 H   0  0  0  0  0  0  0  0  0  0  0  0
  476.7267  325.7098  336.7547 C   0  0  0  0  0  0  0  0  0  0  0  0
  477.9023  319.8159  340.3364 H   0  0  0  0  0  0  0  0  0  0  0  0
  475.6640  325.1436  340.6810 H   0  0  0  0  0  0  0  0  0  0  0  0
  471.1394  318.1068  332.5259 C   0  0  0  0  0  0  0  0  0  0  0  0
  480.1432  322.9698  343.5156 H   0  0  0  0  0  0  0  0  0  0  0  0
  478.0910  320.3041  331.6589 H   0  0  0  0  0  0  0  0  0  0  0  0
  474.2689  316.4782  338.4186 H   0  0  0  0  0  0  0  0  0  0  0  0
  471.8463  316.8023  328.6694 H   0  0  0  0  0  0  0  0  0  0  0  0
  476.4947  321.9167  340.9966 H   0  0  0  0  0  0  0  0  0  0  0  0
  477.9072  322.1941  342.8041 H   0  0  0  0  0  0  0  0  0  0  0  0
  2 26  1  0  0  0  0
  4 66  1  0  0  0  0
  6 19  1  0  0  0  0
 11 81  1  0  0  0  0
 12 28  1  0  0  0  0
 15 26  1  0  0  0  0
 17 41  1  0  0  0  0
 18 65  1  6  0  0  0
 18 88  1  0  0  0  0
 18 28  1  0  0  0  0
 19 53  1  0  0  0  0
 19 13  1  0  0  0  0
 20 28  1  1  0  0  0
 20 61  1  0  0  0  0
 20 19  1  0  0  0  0
 21  5  1  0  0  0  0
 22 32  2  0  0  0  0
 22 84  1  0  0  0  0
 23 72  1  0  0  0  0
 23 63  1  0  0  0  0
 24 29  1  6  0  0  0
 24 52  1  0  0  0  0
 25 30  1  0  0  0  0
 25 61  2  0  0  0  0
 26 33  2  0  0  0  0
 27 22  1  0  0  0  0
 29 46  1  0  0  0  0
 30 35  1  0  0  0  0
 31 23  2  0  0  0  0
 32 78  1  0  0  0  0
 33 14  1  0  0  0  0
 33 30  1  0  0  0  0
 34 59  1  0  0  0  0
 34 94  1  0  0  0  0
 37 57  1  0  0  0  0
 38 54  1  0  0  0  0
 39 25  1  0  0  0  0
 41  9  1  0  0  0  0
 41 27  1  0  0  0  0
 42 30  1  0  0  0  0
 44 21  1  0  0  0  0
 45 34  1  0  0  0  0
 47 76  1  0  0  0  0
 50 69  1  0  0  0  0
 51 80  1  0  0  0  0
 52 74  1  0  0  0  0
 52  1  1  0  0  0  0
 53 96  1  0  0  0  0
 53 72  1  0  0  0  0
 54 68  1  0  0  0  0
 55 91  2  0  0  0  0
 56 36  1  0  0  0  0
 56 55  1  0  0  0  0
 57 56  1  0  0  0  0
 58 65  1  0  0  0  0
 60 14  1  0  0  0  0
 61 90  1  0  0  0  0
 63 92  1  0  0  0  0
 63 48  1  0  0  0  0
 64 21  1  1  0  0  0
 64 67  1  0  0  0  0
 66 88  1  0  0  0  0
 66 76  1  0  0  0  0
 67 87  1  0  0  0  0
 67 62  1  0  0  0  0
 67  8  1  0  0  0  0
 68 82  2  0  0  0  0
 69 43  1  0  0  0  0
 70 57  1  0  0  0  0
 71 81  1  1  0  0  0
 71 24  1  0  0  0  0
 71 77  1  0  0  0  0
 72 68  1  0  0  0  0
 72 97  1  1  0  0  0
 73 69  1  0  0  0  0
 75 88  1  0  0  0  0
 76  7  1  0  0  0  0
 76  3  1  0  0  0  0
 77 34  1  0  0  0  0
 77 69  1  0  0  0  0
 78 65  2  0  0  0  0
 78 40  1  0  0  0  0
 79 55  1  0  0  0  0
 80 29  2  0  0  0  0
 82 64  1  0  0  0  0
 82 16  1  0  0  0  0
 83 63  1  0  0  0  0
 84 86  1  0  0  0  0
 84 81  2  0  0  0  0
 85 32  1  0  0  0  0
 88 49  1  0  0  0  0
 89 54  1  0  0  0  0
 91 10  1  0  0  0  0
 91 80  1  0  0  0  0
 93 27  1  0  0  0  0
 95 57  1  0  0  0  0
M  END
