96
Frame 0: XYZ file generated from coordinates
H 471.398430 318.524170 337.135582
H 475.093651 327.914429 339.945869
H 480.034294 326.445274 336.578712
H 479.243622 324.586792 337.750931
H 477.394600 317.941189 344.734459
H 478.137169 324.182930 339.777794
H 478.572655 327.357864 337.568169
H 475.426216 318.391476 341.816216
H 477.963829 318.001614 332.706985
H 477.720184 321.516304 340.812073
H 470.335655 318.666229 331.459160
H 474.193878 319.021912 333.476028
H 474.714622 323.035393 338.279686
H 477.342224 324.449158 341.533585
O 473.815575 327.769966 343.006477
H 475.785980 328.183250 341.292534
H 477.520638 320.589180 341.414909
H 477.733841 318.599739 331.306801
C 476.719208 323.321724 337.356071
C 477.386780 323.715324 340.527191
C 476.098289 323.719444 339.814568
C 478.110924 318.179932 343.859329
C 476.687469 319.823761 333.738060
C 480.452766 322.974052 341.577110
C 472.390251 318.299465 335.109100
C 473.823967 324.946861 340.900955
C 474.683723 328.245811 340.838966
C 477.886124 319.928799 333.034325
C 475.817642 323.253670 338.655205
C 471.420021 318.423557 333.887901
C 473.278885 326.173897 341.199608
O 481.650200 322.616081 341.185760
C 476.288452 321.171532 334.355278
C 473.910255 327.356339 341.739159
C 473.048134 315.427380 335.857506
H 472.603798 326.131287 342.190514
H 469.546509 317.921028 329.069328
H 469.576073 315.081081 328.541603
H 479.619141 321.210785 344.857597
H 473.244591 324.172134 340.550842
H 475.165825 320.613251 336.044312
N 478.277550 318.856239 332.299347
H 472.409515 326.324120 340.566101
H 475.782738 315.582104 337.376671
H 478.783836 317.579021 343.373222
H 472.492943 314.931068 334.857597
H 470.801735 319.307384 333.731651
H 480.123291 326.309166 338.006248
H 479.590836 324.513741 342.768517
H 476.769981 325.434227 336.922989
H 476.182442 316.176300 335.679436
H 471.993065 316.548157 333.123589
N 471.525841 317.755337 336.304436
N 478.040276 322.417870 340.941010
N 479.907494 321.247215 343.946114
C 470.992699 316.818943 330.222054
C 470.269852 316.993752 329.068260
C 470.098915 315.944424 328.171959
H 476.518898 322.936363 335.409241
H 473.148079 314.493694 336.343803
H 473.849297 328.908043 342.998848
C 475.106316 324.809418 340.491180
H 475.858727 319.950447 342.806396
C 480.442390 324.363060 342.137184
C 477.483940 319.185486 342.946739
C 476.205864 322.466507 336.438599
C 478.401756 325.306969 337.712975
C 475.908928 318.872890 342.820549
C 479.038048 321.095238 342.599487
C 475.614891 316.395931 336.682854
H 470.041466 316.520271 327.047005
C 473.679771 317.790813 335.239677
C 479.245796 322.234306 341.709862
H 475.709572 317.549801 336.880760
H 470.609741 318.048992 335.948143
H 477.820511 324.536552 335.638580
C 479.147987 326.561623 337.276268
C 474.183693 316.589394 335.959663
C 475.950737 321.396751 335.600967
H 471.823997 316.107540 330.121231
C 471.546631 317.423553 332.704659
C 474.704247 318.322086 334.283104
C 478.173485 320.201874 342.257080
H 481.306496 324.247627 342.923241
C 475.999908 318.538399 334.256554
H 476.224327 322.211075 333.876228
H 476.723328 317.844601 334.142494
H 475.455971 318.172665 343.753929
C 477.402763 324.535332 336.837883
H 480.758629 321.285248 343.416328
H 475.996590 325.632706 340.663605
C 470.806847 317.650967 331.343346
H 480.441551 325.166588 341.525154
H 478.484612 320.953064 333.009033
H 472.072220 316.165504 336.254158
H 471.061440 315.653362 327.790070
